/*--------------------------------*- C++ -*----------------------------------*\
| =========                 |                                                 |
| \\      /  F ield         | OpenFOAM: The Open Source CFD Toolbox           |
|  \\    /   O peration     | Version:  5                                     |
|   \\  /    A nd           | Web:      www.OpenFOAM.org                      |
|    \\/     M anipulation  |                                                 |
\*---------------------------------------------------------------------------*/
FoamFile
{
    version     2.0;
    format      ascii;
    class       dictionary;
    object      blockMeshDict;
}
// * * * * * * * * * * * * * * * * * * * * * * * * * * * * * * * * * * * * * //

convertToMeters 0.1;

vertices
(
    (0 0 0)
    (LEN 0 0)
    (LEN WID 0)
    (0 WID 0)
    (0 0 THICK)
    (LEN 0 THICK)
    (LEN WID THICK)
    (0 WID THICK)
);

blocks
(
    hex (0 1 2 3 4 5 6 7) (NX NY NZ) simpleGrading (1 1 1)
);

edges
(
);

boundary
(
    top
    {
        type wall;
        faces
        (
            (3 7 6 2)
        );
    }
    left
    {
        type wall;
        faces
        (
            (0 4 7 3)
        );
    }

    right
    {
        type wall;
        faces
        (
            (2 6 5 1)
        );
    }

    bottom
    {
        type wall;
        faces
        (
            (1 5 4 0)
        );
    }
    front
    {
        type wall;
        faces
        (
            (0 3 2 1)
        );
    }

    back
    {
        type wall;
        faces
        (
            (4 5 6 7)
        );
    }
);

mergePatchPairs
(
);

// ************************************************************************* //
