/*--------------------------------*- C++ -*----------------------------------*\
| =========                 |                                                 |
| \\      /  F ield         | OpenFOAM: The Open Source CFD Toolbox           |
|  \\    /   O peration     | Version:  5                                     |
|   \\  /    A nd           | Web:      www.OpenFOAM.org                      |
|    \\/     M anipulation  |                                                 |
\*---------------------------------------------------------------------------*/
FoamFile
{
    version     2.0;
    format      ascii;
    class       dictionary;
    location    "constant";
    object      fvOptions;
}

presSource
{
	type 	scalarSemiImplicitSource;
	active	true;

	scalarSemiImplicitSourceCoeffs
	{
		selectionMode		points;
		points
		(
			(7.620000 7.620000 0.762000)
		);
		cellSet			c1;
		volumeMode		absolute;
		injectionRateSuSp	
		{
			P	(1000 0);
		}
	}
}
